powerflow/Codes/PF_Formulation/resultados_csv/18/5busfrank_csca/barras.csv
caso,script,bus_id,vm_pu,va_rad,pd_pu,qd_pu,pg_pu,qg_pu,bus_type
5busfrank_csca.pwf,18,1,1.0871110663064167,0.0,0.0,0.0,0.595728349446991,0.22291765782195358,3
5busfrank_csca.pwf,18,2,1.0847773524080795,-0.047731154776412765,0.0,0.0,0.12990000000000002,0.704000009662125,2
5busfrank_csca.pwf,18,3,0.9501395357378694,-0.0006047904545859728,0.5039,1.003,0.0,0.0,1
5busfrank_csca.pwf,18,4,1.0192373830965975,-0.10375350088057064,0.0239,0.503,0.0,0.0,1
5busfrank_csca.pwf,18,5,1.0556481088485812,-0.150094781653442,0.0239,0.503,0.0,0.0,1
